Circuit: * C:\Users\Bryce\Documents\GitHub\LoRa_Pump\Simulation\Gatedriver Simulation\GateDriverSim.asc

Model "u1:x8:pmos1": Oxide thickness thinner than recommended for a level 3 MOSFET.
Model "u1:x8:nmos1": Oxide thickness thinner than recommended for a level 3 MOSFET.
Model "u1:x5:pmos1": Oxide thickness thinner than recommended for a level 3 MOSFET.
Model "u1:x5:nmos1": Oxide thickness thinner than recommended for a level 3 MOSFET.
Model "u1:x2:pmos1": Oxide thickness thinner than recommended for a level 3 MOSFET.
Model "u1:x2:nmos1": Oxide thickness thinner than recommended for a level 3 MOSFET.
Model "u1:x7:pmos1": Oxide thickness thinner than recommended for a level 3 MOSFET.
Model "u1:x7:nmos1": Oxide thickness thinner than recommended for a level 3 MOSFET.
Model "u1:x6:pmos1": Oxide thickness thinner than recommended for a level 3 MOSFET.
Model "u1:x6:nmos1": Oxide thickness thinner than recommended for a level 3 MOSFET.
Model "u1:x3:pmos1": Oxide thickness thinner than recommended for a level 3 MOSFET.
Model "u1:x3:nmos1": Oxide thickness thinner than recommended for a level 3 MOSFET.
Model "u1:x1:pmos1": Oxide thickness thinner than recommended for a level 3 MOSFET.
Model "u1:x1:nmos1": Oxide thickness thinner than recommended for a level 3 MOSFET.
Model "nmos1": Oxide thickness thinner than recommended for a level 3 MOSFET.
Model "pmos1": Oxide thickness thinner than recommended for a level 3 MOSFET.
Model "u1:x23:x3:pmos1": Oxide thickness thinner than recommended for a level 3 MOSFET.
Model "u1:x23:x3:nmos1": Oxide thickness thinner than recommended for a level 3 MOSFET.
Model "u1:x23:x2:pmos1": Oxide thickness thinner than recommended for a level 3 MOSFET.
Model "u1:x23:x2:nmos1": Oxide thickness thinner than recommended for a level 3 MOSFET.
Model "u1:x23:x1:pmos1": Oxide thickness thinner than recommended for a level 3 MOSFET.
Model "u1:x23:x1:nmos1": Oxide thickness thinner than recommended for a level 3 MOSFET.
Model "u1:x4:x6:pmos1": Oxide thickness thinner than recommended for a level 3 MOSFET.
Model "u1:x4:x6:nmos1": Oxide thickness thinner than recommended for a level 3 MOSFET.
Model "u1:x4:x4:pmos1": Oxide thickness thinner than recommended for a level 3 MOSFET.
Model "u1:x4:x4:nmos1": Oxide thickness thinner than recommended for a level 3 MOSFET.
Model "u1:x4:x3:pmos1": Oxide thickness thinner than recommended for a level 3 MOSFET.
Model "u1:x4:x3:nmos1": Oxide thickness thinner than recommended for a level 3 MOSFET.
Limiting rise time of source v3 to 1.6666e-006
Limiting fall time of source v3 to 1.6666e-006
Instance "m:u2:r": Length shorter than recommended for a level 1 MOSFET.
Instance "m:u2:r": Width narrower than recommended for a level 1 MOSFET.
Instance "m:u2:1": Width narrower than recommended for a level 3 MOSFET.
Instance "m:u1:x8:2": Length shorter than recommended for a level 3 MOSFET.
Instance "m:u1:x8:1": Length shorter than recommended for a level 3 MOSFET.
Instance "m:u1:x5:2": Length shorter than recommended for a level 3 MOSFET.
Instance "m:u1:x5:1": Length shorter than recommended for a level 3 MOSFET.
Instance "m:u1:x2:4": Length shorter than recommended for a level 3 MOSFET.
Instance "m:u1:x2:5": Length shorter than recommended for a level 3 MOSFET.
Instance "m:u1:x2:2": Length shorter than recommended for a level 3 MOSFET.
Instance "m:u1:x2:6": Length shorter than recommended for a level 3 MOSFET.
Instance "m:u1:x2:3": Length shorter than recommended for a level 3 MOSFET.
Instance "m:u1:x2:1": Length shorter than recommended for a level 3 MOSFET.
Instance "m:u1:x7:7": Length shorter than recommended for a level 3 MOSFET.
Instance "m:u1:x7:6": Length shorter than recommended for a level 3 MOSFET.
Instance "m:u1:x7:5": Length shorter than recommended for a level 3 MOSFET.
Instance "m:u1:x7:2": Length shorter than recommended for a level 3 MOSFET.
Instance "m:u1:x7:8": Length shorter than recommended for a level 3 MOSFET.
Instance "m:u1:x7:4": Length shorter than recommended for a level 3 MOSFET.
Instance "m:u1:x7:3": Length shorter than recommended for a level 3 MOSFET.
Instance "m:u1:x7:1": Length shorter than recommended for a level 3 MOSFET.
Instance "m:u1:x6:2": Length shorter than recommended for a level 3 MOSFET.
Instance "m:u1:x6:1": Length shorter than recommended for a level 3 MOSFET.
Instance "m:u1:x3:2": Length shorter than recommended for a level 3 MOSFET.
Instance "m:u1:x3:1": Length shorter than recommended for a level 3 MOSFET.
Instance "m:u1:x1:9": Length shorter than recommended for a level 3 MOSFET.
Instance "m:u1:x1:7": Length shorter than recommended for a level 3 MOSFET.
Instance "m:u1:x1:6": Length shorter than recommended for a level 3 MOSFET.
Instance "m:u1:x1:5": Length shorter than recommended for a level 3 MOSFET.
Instance "m:u1:x1:2": Length shorter than recommended for a level 3 MOSFET.
Instance "m:u1:x1:10": Length shorter than recommended for a level 3 MOSFET.
Instance "m:u1:x1:8": Length shorter than recommended for a level 3 MOSFET.
Instance "m:u1:x1:4": Length shorter than recommended for a level 3 MOSFET.
Instance "m:u1:x1:3": Length shorter than recommended for a level 3 MOSFET.
Instance "m:u1:x1:1": Length shorter than recommended for a level 3 MOSFET.
Instance "m:u1:10": Length shorter than recommended for a level 3 MOSFET.
Instance "m:u1:6": Length shorter than recommended for a level 3 MOSFET.
Instance "m:u1:3": Length shorter than recommended for a level 3 MOSFET.
Instance "m:u1:7": Length shorter than recommended for a level 3 MOSFET.
Instance "m:u1:5": Length shorter than recommended for a level 3 MOSFET.
Instance "m:u1:9": Length shorter than recommended for a level 3 MOSFET.
Instance "m:u1:x23:x3:2": Length shorter than recommended for a level 3 MOSFET.
Instance "m:u1:x23:x3:1": Length shorter than recommended for a level 3 MOSFET.
Instance "m:u1:x23:x2:2": Length shorter than recommended for a level 3 MOSFET.
Instance "m:u1:x23:x2:1": Length shorter than recommended for a level 3 MOSFET.
Instance "m:u1:x23:x1:2": Length shorter than recommended for a level 3 MOSFET.
Instance "m:u1:x23:x1:1": Length shorter than recommended for a level 3 MOSFET.
Instance "m:u1:x4:x6:2": Length shorter than recommended for a level 3 MOSFET.
Instance "m:u1:x4:x6:1": Length shorter than recommended for a level 3 MOSFET.
Instance "m:u1:x4:x4:2": Length shorter than recommended for a level 3 MOSFET.
Instance "m:u1:x4:x4:1": Length shorter than recommended for a level 3 MOSFET.
Instance "m:u1:x4:x3:2": Length shorter than recommended for a level 3 MOSFET.
Instance "m:u1:x4:x3:1": Length shorter than recommended for a level 3 MOSFET.
Early termination of direct N-R iteration.
Direct Newton iteration failed to find .op point.  (Use ".option noopiter" to skip.)
Starting Gmin stepping
Gmin = 10
Gmin = 1.07374
vernier = 0.5
vernier = 0.25
vernier = 0.125
vernier = 0.0625
Gmin = 0.995033
vernier = 0.03125
vernier = 0.015625
vernier = 0.0078125
vernier = 0.00390625
Gmin = 0.999816
vernier = 0.00195313
vernier = 0.000976563
vernier = 0.000488281
Gmin = 0
Gmin stepping succeeded in finding the operating point.

Ignoring empty pin current: Ix(u1:nc)
Ignoring empty pin current: Ix(u1:nc)
Heightened Def Con from 1.90372e-005 to 1.90392e-005
Heightened Def Con from 5.23702e-005 to 5.23722e-005
Heightened Def Con from 8.57032e-005 to 8.57052e-005

Date: Sun May 15 12:48:48 2022
Total elapsed time: 0.706 seconds.

tnom = 27
temp = 27
method = modified trap
totiter = 16313
traniter = 14869
tranpoints = 4342
accept = 3387
rejected = 958
matrix size = 293
fillins = 667
solver = Normal
Thread vector: 12.1/8.1[5] 4.7/3.0[5] 1.9/1.1[5] 1.1/1.6[1]  2592/500
Matrix Compiler1:    4182 opcodes  13.2/[4.1]/4.6
Matrix Compiler2: 41.26 KB object code size  3.0/2.8/[2.4]

